
  EPA STORM WATER MANAGEMENT MODEL - VERSION 5.1 (Build 5.3.0.dev0)
  --------------------------------------------------------------

  WARNING 04: minimum elevation drop used for Conduit C5
  
  *********************************************************
  NOTE: The summary statistics displayed in this report are
  based on results found at every computational time step,  
  not just on results from each reporting time step.
  *********************************************************
  
  ****************
  Analysis Options
  ****************
  Flow Units ............... CMS
  Process Models:
    Rainfall/Runoff ........ YES
    RDII ................... NO
    Snowmelt ............... NO
    Groundwater ............ NO
    Flow Routing ........... YES
    Ponding Allowed ........ YES
    Water Quality .......... NO
  Infiltration Method ...... HORTON
  Flow Routing Method ...... DYNWAVE
  Surcharge Method ......... SLOT
  Starting Date ............ 09/05/2019 00:00:00
  Ending Date .............. 09/23/2019 00:00:00
  Antecedent Dry Days ...... 0.0
  Report Time Step ......... 00:05:00
  Wet Time Step ............ 00:01:00
  Dry Time Step ............ 01:00:00
  Routing Time Step ........ 10.00 sec
  Variable Time Step ....... NO
  Maximum Trials ........... 8
  Number of Threads ........ 1
  Head Tolerance ........... 0.001500 m
  
  
  **************************        Volume         Depth
  Runoff Quantity Continuity     hectare-m            mm
  **************************     ---------       -------
  Total Precipitation ......        40.437        74.196
  Evaporation Loss .........         8.544        15.676
  Infiltration Loss ........        23.042        42.278
  Surface Runoff ...........         8.858        16.252
  Final Storage ............         0.000         0.000
  Continuity Error (%) .....        -0.015
  
  
  **************************        Volume        Volume
  Flow Routing Continuity        hectare-m      10^6 ltr
  **************************     ---------     ---------
  Dry Weather Inflow .......         0.000         0.000
  Wet Weather Inflow .......         8.858        88.577
  Groundwater Inflow .......         0.000         0.000
  RDII Inflow ..............         0.000         0.000
  External Inflow ..........         0.189         1.889
  External Outflow .........        23.485       234.856
  Flooding Loss ............         0.000         0.000
  Evaporation Loss .........         0.320         3.196
  Exfiltration Loss ........         0.000         0.000
  Initial Stored Volume ....        16.792       167.917
  Final Stored Volume ......         2.047        20.469
  Continuity Error (%) .....        -0.053
  
  
  *************************
  Highest Continuity Errors
  *************************
  Node J4 (-2.43%)
  Node J5 (1.28%)
  Node J2 (-1.02%)
  
  
  ********************************
  Highest Flow Instability Indexes
  ********************************
  Link 2 (21)
  Link OR2 (18)
  
  
  *************************
  Routing Time Step Summary
  *************************
  Minimum Time Step           :    10.00 sec
  Average Time Step           :    10.00 sec
  Maximum Time Step           :    10.00 sec
  Percent in Steady State     :     0.00
  Average Iterations per Step :     2.00
  Percent Not Converging      :     0.00
  
  
  ***************************
  Subcatchment Runoff Summary
  ***************************
  
  ------------------------------------------------------------------------------------------------------------------------------
                            Total      Total      Total      Total     Imperv       Perv      Total       Total     Peak  Runoff
                           Precip      Runon       Evap      Infil     Runoff     Runoff     Runoff      Runoff   Runoff   Coeff
  Subcatchment                 mm         mm         mm         mm         mm         mm         mm    10^6 ltr      CMS
  ------------------------------------------------------------------------------------------------------------------------------
  S1                        74.20       0.00      24.10       4.50      43.48       2.13      45.60        9.12     0.07   0.615
  S2                        74.20       0.00      23.28       4.41      44.27       2.23      46.50        6.98     0.06   0.627
  S3                        74.20       0.00      22.75       4.35      44.79       2.30      47.09        4.71     0.05   0.635
  S_Upstream                74.20       0.00      14.97      45.68      11.91       1.65      13.55       67.77     0.49   0.183
  
  
  ******************
  Node Depth Summary
  ******************
  
  ---------------------------------------------------------------------------------
                                 Average  Maximum  Maximum  Time of Max    Reported
                                   Depth    Depth      HGL   Occurrence   Max Depth
  Node                 Type       Meters   Meters   Meters  days hr:min      Meters
  ---------------------------------------------------------------------------------
  J1                   JUNCTION     0.02     0.20     7.70     0  00:00        0.17
  J2                   JUNCTION     0.05     0.20     6.95     0  00:04        0.20
  J3                   JUNCTION     0.06     0.22     6.22     0  00:14        0.22
  J4                   JUNCTION     0.07     0.21     5.71     0  00:39        0.21
  J5                   JUNCTION     0.30     0.32     0.32     0  00:42        0.32
  OF1                  OUTFALL      0.30     0.30     0.30     0  00:00        0.30
  SU1                  STORAGE      0.19     0.40     7.15     0  00:00        0.37
  SU2                  STORAGE      0.10     0.39     6.39     0  00:00        0.29
  SU3                  STORAGE      0.08     0.30     5.80     0  00:00        0.25
  CS1                  STORAGE      0.20     0.40     7.15     0  00:00        0.40
  CS2                  STORAGE      0.11     0.40     6.40     0  00:00        0.40
  CS3                  STORAGE      0.09     0.30     5.80     0  00:00        0.30
  
  
  *******************
  Node Inflow Summary
  *******************
  
  -------------------------------------------------------------------------------------------------
                                  Maximum  Maximum                  Lateral       Total        Flow
                                  Lateral    Total  Time of Max      Inflow      Inflow     Balance
                                   Inflow   Inflow   Occurrence      Volume      Volume       Error
  Node                 Type           CMS      CMS  days hr:min    10^6 ltr    10^6 ltr     Percent
  -------------------------------------------------------------------------------------------------
  J1                   JUNCTION     0.486    0.486     5  22:33        67.8        67.8      -1.144
  J2                   JUNCTION     0.000    0.734     0  00:03           0         139      -1.011
  J3                   JUNCTION     0.000    0.938     0  00:05           0         202      -0.584
  J4                   JUNCTION     0.000    0.944     0  00:16           0         236      -2.368
  J5                   JUNCTION     0.000    2.002     0  00:06           0         238       1.295
  OF1                  OUTFALL      0.000    1.232     0  00:05           0         237       0.000
  SU1                  STORAGE      0.000    0.109     0  02:24           0        70.7       0.000
  SU2                  STORAGE      0.000    0.174     0  02:27           0          64      -0.076
  SU3                  STORAGE      0.000    0.118     0  04:18           0        38.5       0.002
  CS1                  STORAGE      0.075    0.075     5  08:41        9.12        79.1      -0.009
  CS2                  STORAGE      0.064    0.122     5  09:24        6.98        61.8       0.070
  CS3                  STORAGE      0.046    0.084     5  11:29        4.71        37.2      -0.009
  
  
  **********************
  Node Surcharge Summary
  **********************
  
  Surcharging occurs when water rises above the top of the highest conduit.
  ---------------------------------------------------------------------
                                               Max. Height   Min. Depth
                                   Hours       Above Crown    Below Rim
  Node                 Type      Surcharged         Meters       Meters
  ---------------------------------------------------------------------
  CS1                  STORAGE       407.18          0.300        3.000
  CS2                  STORAGE       213.31          0.300        3.000
  CS3                  STORAGE       145.73          0.200        3.000
  
  
  *********************
  Node Flooding Summary
  *********************
  
  No nodes were flooded.
  
  
  **********************
  Storage Volume Summary
  **********************
  
  --------------------------------------------------------------------------------------------------
                         Average     Avg  Evap Exfil       Maximum     Max    Time of Max    Maximum
                          Volume    Pcnt  Pcnt  Pcnt        Volume    Pcnt     Occurrence    Outflow
  Storage Unit           1000 m3    Full  Loss  Loss       1000 m3    Full    days hr:min        CMS
  --------------------------------------------------------------------------------------------------
  SU1                      0.023       0     0     0         0.089       2       0  00:00      0.121
  SU2                      0.005       0     0     0         0.058       2       0  00:00      0.338
  SU3                      0.005       0     0     0         0.051       1       0  00:00      0.192
  CS1                     30.066       4     0     0        70.000      10       0  00:00      0.109
  CS2                     10.756       2     0     0        52.500      10       0  00:00      0.174
  CS3                      8.249       3     0     0        29.500       9       0  00:00      0.118
  
  
  ***********************
  Outfall Loading Summary
  ***********************
  
  -----------------------------------------------------------
                         Flow       Avg       Max       Total
                         Freq      Flow      Flow      Volume
  Outfall Node           Pcnt       CMS       CMS    10^6 ltr
  -----------------------------------------------------------
  OF1                  100.00     0.152     1.232     236.744
  -----------------------------------------------------------
  System               100.00     0.152     1.232     236.744
  
  
  ********************
  Link Flow Summary
  ********************
  
  -----------------------------------------------------------------------------
                                 Maximum  Time of Max   Maximum    Max/    Max/
                                  |Flow|   Occurrence   |Veloc|    Full    Full
  Link                 Type          CMS  days hr:min     m/sec    Flow   Depth
  -----------------------------------------------------------------------------
  C1                   CONDUIT     0.628     0  00:03      0.64    0.00    0.02
  C2                   CONDUIT     0.770     0  00:05      0.72    0.00    0.02
  C3                   CONDUIT     0.834     0  00:16      0.76    0.00    0.02
  C4                   CONDUIT     0.814     0  00:39      0.71    0.00    0.03
  C5                   CONDUIT     1.232     0  00:05      0.91    0.02    0.03
  OR1                  ORIFICE     0.121     0  00:00                      0.40
  OR2                  ORIFICE     0.338     0  00:00                      0.39
  OR3                  ORIFICE     0.192     0  00:00                      0.30
  1                    WEIR        0.109     0  02:24                      1.00
  2                    WEIR        0.174     0  02:27                      1.00
  3                    WEIR        0.118     0  04:18                      1.00
  
  
  ***************************
  Flow Classification Summary
  ***************************
  
  -------------------------------------------------------------------------------------
                      Adjusted    ---------- Fraction of Time in Flow Class ---------- 
                       /Actual         Up    Down  Sub   Sup   Up    Down  Norm  Inlet 
  Conduit               Length    Dry  Dry   Dry   Crit  Crit  Crit  Crit  Ltd   Ctrl  
  -------------------------------------------------------------------------------------
  C1                      1.00   0.00  0.08  0.00  0.92  0.00  0.00  0.00  0.99  0.00
  C2                      1.00   0.00  0.00  0.00  1.00  0.00  0.00  0.00  0.99  0.00
  C3                      1.00   0.00  0.00  0.00  1.00  0.00  0.00  0.00  0.92  0.00
  C4                      1.00   0.00  0.00  0.00  1.00  0.00  0.00  0.00  1.00  0.00
  C5                      1.00   0.00  0.00  0.00  1.00  0.00  0.00  0.00  0.00  0.00
  
  
  *************************
  Conduit Surcharge Summary
  *************************
  
  No conduits were surcharged.
  

  Analysis begun on:  Tue Jun 29 12:44:11 2021
  Analysis ended on:  Tue Jun 29 12:44:14 2021
  Total elapsed time: 00:00:03