
  EPA STORM WATER MANAGEMENT MODEL - VERSION 5.1 (Build 5.1.015)
  --------------------------------------------------------------

  WARNING 04: minimum elevation drop used for Conduit C5
  
  *********************************************************
  NOTE: The summary statistics displayed in this report are
  based on results found at every computational time step,  
  not just on results from each reporting time step.
  *********************************************************
  
  ****************
  Analysis Options
  ****************
  Flow Units ............... CMS
  Process Models:
    Rainfall/Runoff ........ YES
    RDII ................... NO
    Snowmelt ............... NO
    Groundwater ............ NO
    Flow Routing ........... YES
    Ponding Allowed ........ YES
    Water Quality .......... NO
  Infiltration Method ...... HORTON
  Flow Routing Method ...... DYNWAVE
  Surcharge Method ......... SLOT
  Starting Date ............ 09/05/2019 00:00:00
  Ending Date .............. 09/23/2019 00:00:00
  Antecedent Dry Days ...... 0.0
  Report Time Step ......... 00:05:00
  Wet Time Step ............ 00:01:00
  Dry Time Step ............ 01:00:00
  Routing Time Step ........ 10.00 sec
  Variable Time Step ....... NO
  Maximum Trials ........... 8
  Number of Threads ........ 1
  Head Tolerance ........... 0.001500 m
  
  
  **************************        Volume         Depth
  Runoff Quantity Continuity     hectare-m            mm
  **************************     ---------       -------
  Total Precipitation ......        40.437        74.196
  Evaporation Loss .........         8.544        15.676
  Infiltration Loss ........        23.042        42.278
  Surface Runoff ...........         8.858        16.252
  Final Storage ............         0.000         0.000
  Continuity Error (%) .....        -0.015
  
  
  **************************        Volume        Volume
  Flow Routing Continuity        hectare-m      10^6 ltr
  **************************     ---------     ---------
  Dry Weather Inflow .......         0.000         0.000
  Wet Weather Inflow .......         8.858        88.577
  Groundwater Inflow .......         0.000         0.000
  RDII Inflow ..............         0.000         0.000
  External Inflow ..........         0.191         1.913
  External Outflow .........         9.438        94.378
  Flooding Loss ............         0.084         0.839
  Evaporation Loss .........         0.241         2.412
  Exfiltration Loss ........         0.000         0.000
  Initial Stored Volume ....         1.593        15.933
  Final Stored Volume ......         0.892         8.917
  Continuity Error (%) .....        -0.116
  
  
  *************************
  Highest Continuity Errors
  *************************
  Node J4 (-6.96%)
  Node J5 (3.12%)
  Node J2 (-2.02%)
  Node J3 (-1.53%)
  
  
  ********************************
  Highest Flow Instability Indexes
  ********************************
  All links are stable.
  
  
  *************************
  Routing Time Step Summary
  *************************
  Minimum Time Step           :    10.00 sec
  Average Time Step           :    10.00 sec
  Maximum Time Step           :    10.00 sec
  Percent in Steady State     :     0.00
  Average Iterations per Step :     2.00
  Percent Not Converging      :     0.00
  
  
  ***************************
  Subcatchment Runoff Summary
  ***************************
  
  ------------------------------------------------------------------------------------------------------------------------------
                            Total      Total      Total      Total     Imperv       Perv      Total       Total     Peak  Runoff
                           Precip      Runon       Evap      Infil     Runoff     Runoff     Runoff      Runoff   Runoff   Coeff
  Subcatchment                 mm         mm         mm         mm         mm         mm         mm    10^6 ltr      CMS
  ------------------------------------------------------------------------------------------------------------------------------
  S1                        74.20       0.00      24.10       4.50      43.48       2.13      45.60        9.12     0.07   0.615
  S2                        74.20       0.00      23.28       4.41      44.27       2.23      46.50        6.98     0.06   0.627
  S3                        74.20       0.00      22.75       4.35      44.79       2.30      47.09        4.71     0.05   0.635
  S_Upstream                74.20       0.00      14.97      45.68      11.91       1.65      13.55       67.77     0.49   0.183
  
  
  ******************
  Node Depth Summary
  ******************
  
  ---------------------------------------------------------------------------------
                                 Average  Maximum  Maximum  Time of Max    Reported
                                   Depth    Depth      HGL   Occurrence   Max Depth
  Node                 Type       Meters   Meters   Meters  days hr:min      Meters
  ---------------------------------------------------------------------------------
  J1                   JUNCTION     0.02     0.20     7.70     0  00:00        0.17
  J2                   JUNCTION     0.02     0.20     6.95     0  00:01        0.20
  J3                   JUNCTION     0.03     0.20     6.20     0  00:06        0.20
  J4                   JUNCTION     0.03     0.20     5.70     0  00:02        0.20
  J5                   JUNCTION     0.30     0.32     0.32     0  00:42        0.32
  OF1                  OUTFALL      0.30     0.30     0.30     0  00:00        0.30
  SU1                  STORAGE      0.30     2.00     8.75     5  22:39        2.00
  SU2                  STORAGE      0.23     2.00     8.00     5  22:37        2.00
  SU3                  STORAGE      0.14     1.32     6.82     6  02:44        1.32
  
  
  *******************
  Node Inflow Summary
  *******************
  
  -------------------------------------------------------------------------------------------------
                                  Maximum  Maximum                  Lateral       Total        Flow
                                  Lateral    Total  Time of Max      Inflow      Inflow     Balance
                                   Inflow   Inflow   Occurrence      Volume      Volume       Error
  Node                 Type           CMS      CMS  days hr:min    10^6 ltr    10^6 ltr     Percent
  -------------------------------------------------------------------------------------------------
  J1                   JUNCTION     0.486    0.486     5  22:33        67.8        67.8      -1.145
  J2                   JUNCTION     0.000    0.635     0  00:03           0          77      -1.982
  J3                   JUNCTION     0.000    0.751     0  00:06           0        85.1      -1.509
  J4                   JUNCTION     0.000    0.766     0  00:08           0          91      -6.508
  J5                   JUNCTION     0.000    1.992     0  00:05           0        97.4       3.220
  OF1                  OUTFALL      0.000    1.232     0  00:05           0        96.3       0.000
  SU1                  STORAGE      0.075    0.075     5  08:41        9.12        9.21      -0.001
  SU2                  STORAGE      0.064    0.064     5  08:41        6.98        7.04      -0.000
  SU3                  STORAGE      0.046    0.046     5  08:27        4.71        4.76      -0.000
  
  
  **********************
  Node Surcharge Summary
  **********************
  
  No nodes were surcharged.
  
  
  *********************
  Node Flooding Summary
  *********************
  
  Flooding refers to all water that overflows a node, whether it ponds or not.
  --------------------------------------------------------------------------
                                                             Total   Maximum
                                 Maximum   Time of Max       Flood    Ponded
                        Hours       Rate    Occurrence      Volume     Depth
  Node                 Flooded       CMS   days hr:min    10^6 ltr    Meters
  --------------------------------------------------------------------------
  SU1                    11.84     0.040      5  22:39       0.598     0.000
  SU2                     5.96     0.025      5  22:37       0.241     0.000
  
  
  **********************
  Storage Volume Summary
  **********************
  
  --------------------------------------------------------------------------------------------------
                         Average     Avg  Evap Exfil       Maximum     Max    Time of Max    Maximum
                          Volume    Pcnt  Pcnt  Pcnt        Volume    Pcnt     Occurrence    Outflow
  Storage Unit           1000 m3    Full  Loss  Loss       1000 m3    Full    days hr:min        CMS
  --------------------------------------------------------------------------------------------------
  SU1                      0.267      12     0     0         2.250     100       5  22:39      0.031
  SU2                      0.134       9     0     0         1.500     100       5  22:37      0.031
  SU3                      0.074       4     0     0         0.999      49       6  02:44      0.024
  
  
  ***********************
  Outfall Loading Summary
  ***********************
  
  -----------------------------------------------------------
                         Flow       Avg       Max       Total
                         Freq      Flow      Flow      Volume
  Outfall Node           Pcnt       CMS       CMS    10^6 ltr
  -----------------------------------------------------------
  OF1                   94.11     0.066     1.232      96.291
  -----------------------------------------------------------
  System                94.11     0.066     1.232      96.291
  
  
  ********************
  Link Flow Summary
  ********************
  
  -----------------------------------------------------------------------------
                                 Maximum  Time of Max   Maximum    Max/    Max/
                                  |Flow|   Occurrence   |Veloc|    Full    Full
  Link                 Type          CMS  days hr:min     m/sec    Flow   Depth
  -----------------------------------------------------------------------------
  C1                   CONDUIT     0.625     0  00:03      0.64    0.00    0.02
  C2                   CONDUIT     0.742     0  00:06      0.72    0.00    0.02
  C3                   CONDUIT     0.759     0  00:09      0.73    0.00    0.02
  C4                   CONDUIT     0.760     0  00:04      0.70    0.00    0.03
  C5                   CONDUIT     1.232     0  00:05      0.91    0.02    0.03
  OR1                  ORIFICE     0.031     6  09:08                          
  OR2                  ORIFICE     0.031     6  05:14                          
  OR3                  ORIFICE     0.024     6  03:22                          
  
  
  ***************************
  Flow Classification Summary
  ***************************
  
  -------------------------------------------------------------------------------------
                      Adjusted    ---------- Fraction of Time in Flow Class ---------- 
                       /Actual         Up    Down  Sub   Sup   Up    Down  Norm  Inlet 
  Conduit               Length    Dry  Dry   Dry   Crit  Crit  Crit  Crit  Ltd   Ctrl  
  -------------------------------------------------------------------------------------
  C1                      1.00   0.00  0.08  0.00  0.92  0.00  0.00  0.00  0.91  0.00
  C2                      1.00   0.00  0.00  0.00  1.00  0.00  0.00  0.00  0.94  0.00
  C3                      1.00   0.00  0.00  0.00  1.00  0.00  0.00  0.00  0.86  0.00
  C4                      1.00   0.00  0.00  0.00  1.00  0.00  0.00  0.00  1.00  0.00
  C5                      1.00   0.00  0.00  0.00  1.00  0.00  0.00  0.00  0.00  0.00
  
  
  *************************
  Conduit Surcharge Summary
  *************************
  
  No conduits were surcharged.
  

  Analysis begun on:  Tue Aug  3 14:25:41 2021
  Analysis ended on:  Tue Aug  3 14:25:44 2021
  Total elapsed time: 00:00:03